examples/test_perturbation_outputs/pert_min_cost/pglib_opf_case2868_rte.m
%% MATPOWER Case Format : Version 2
function mpc = pglib_opf_case2868_rte
mpc.version = '2';

%%-----  Power Flow Data  -----%%
%% system MVA base
mpc.baseMVA = 100.0;
%% bus data
%    bus_i    type    Pd    Qd    Gs    Bs    area    Vm    Va    baseKV    zone    Vmax    Vmin
mpc.bus = [
	1	1	-18.5	0.0	0.0	0.0	1	1.0	0.0	63.0	1	1.06349	0.93651				
	2	1	11.8	0.6	0.0	0.0	1	0.98889	0.0	225.0	1	1.08889	0.88889				
	3	1	0.0	0.0	0.0	0.0	1	1.05131	0.0	380.0	1	1.10263	1.0				
	4	1	0.0	0.0	0.0	0.0	1	1.0	0.0	63.0	1	1.07937	0.92063				
	5	1	0.2	-0.2	0.0	0.0	1	0.94444	0.0	45.0	1	1.0	0.88889				
	6	1	5.6	-19.0	0.0	0.0	1	0.94444	0.0	45.0	1	1.0	0.88889				
	7	1	223.59999999999997	7.6	0.0	0.0	1	1.04222	0.0	225.0	1	1.08444	1.0				
	8	1	68.6	7.6	0.0	0.0	1	1.01587	0.0	63.0	1	1.06349	0.96825				
	10	1	0.0	0.0	0.0	0.0	1	1.00334	0.0	150.0	1	1.10667	0.9				
	11	1	49.1	0.9000000000000001	0.0	0.0	1	1.01111	0.0	225.0	1	1.08889	0.93333				
	12	1	0.0	0.0	0.0	0.0	1	1.05263	0.0	380.0	1	1.10526	1.0				
	13	1	0.0	0.0	0.0	0.0	1	1.04534	0.0	225.0	1	1.09067	1.0				
	14	1	0.2	-1.1	0.0	0.0	1	1.0	0.0	63.0	1	1.06349	0.93651				
	15	1	10.3	-0.2	0.0	0.0	1	1.0	0.0	63.0	1	1.06349	0.93651				
	16	1	189.8	54.400000000000006	0.0	0.0	1	1.01111	0.0	225.0	1	1.08889	0.93333				
	17	1	54.50000000000001	13.100000000000001	0.0	0.0	1	1.04445	0.0	225.0	1	1.08889	1.0				
	18	1	67.6	23.2	0.0	0.0	1	1.04481	0.0	225.0	1	1.08962	1.0				
	19	2	0.0	0.0	0.0	0.0	1	1.00362	0.0	63.0	1	1.08661	0.92063				
	20	1	150.5	40.0	0.0	0.0	1	1.04445	0.0	225.0	1	1.08889	1.0				
	21	2	78.1	6.2	0.0	0.0	1	0.98889	0.0	225.0	1	1.08889	0.88889				
	22	1	15.0	-9.4	0.0	0.0	1	1.0045	0.0	63.0	1	1.07249	0.93651				
	23	1	50.9	6.0	0.0	0.0	1	1.0	0.0	63.0	1	1.06349	0.93651				
	24	1	0.0	0.0	0.0	0.0	1	1.04445	0.0	225.0	1	1.08889	1.0				
	25	1	65.1	1.6	0.0	0.0	1	0.98889	0.0	225.0	1	1.08889	0.88889				
	26	1	1.6	-4.2	0.0	0.0	1	1.04158	0.0	225.0	1	1.09649	0.98667				
	27	1	42.8	2.3	0.0	0.0	1	1.0	0.0	63.0	1	1.06349	0.93651				
	28	1	39.4	15.5	0.0	0.0	1	1.04445	0.0	225.0	1	1.08889	1.0				
	29	1	11.4	0.5	0.0	0.0	1	1.0	0.0	63.0	1	1.06349	0.93651				
	30	1	72.7	36.5	0.0	0.0	1	1.04445	0.0	225.0	1	1.08889	1.0				
	31	2	2.7	-1.4	0.0	0.0	1	1.00431	0.0	63.0	1	1.07211	0.93651				
	32	1	13.8	-0.4	0.0	0.0	1	1.0	0.0	63.0	1	1.06349	0.93651				
	33	1	2.0	-0.5	0.0	0.0	1	0.94444	0.0	45.0	1	1.0	0.88889				
	34	1	0.4	0.0	0.0	0.0	1	0.94444	0.0	45.0	1	1.0	0.88889				
	35	1	30.4	3.0	0.0	0.0	1	1.01587	0.0	63.0	1	1.06349	0.96825				
	36	1	1.9	-3.1	0.0	0.0	1	0.94444	0.0	45.0	1	1.0	0.88889				
	37	1	18.9	0.9000000000000001	0.0	0.0	1	1.0	0.0	63.0	1	1.06349	0.93651				
	38	2	0.0	0.0	0.0	0.0	1	1.01588	0.0	63.0	1	1.07937	0.95238				
	39	1	99.3	18.8	0.0	0.0	1	1.038	0.0	225.0	1	1.08934	0.98667				
	40	1	38.7	0.9000000000000001	0.0	0.0	1	0.98889	0.0	225.0	1	1.08889	0.88889				
	41	1	89.8	13.0	0.0	0.0	1	1.04222	0.0	225.0	1	1.08444	1.0				
	42	1	63.9	9.7	0.0	0.0	1	1.0001	0.0	63.0	1	1.0637	0.93651				
	43	1	0.0	0.0	0.0	0.0	1	1.01111	0.0	225.0	1	1.08889	0.93333				
	44	1	33.1	-6.5	0.0	0.0	1	1.01587	0.0	63.0	1	1.06349	0.96825				
	45	1	168.4	34.9	0.0	0.0	1	1.04445	0.0	225.0	1	1.08889	1.0				
	46	1	0.0	0.0	0.0	0.0	1	1.05263	0.0	380.0	1	1.10526	1.0				
	47	1	29.5	4.5	0.0	0.0	1	1.00128	0.0	63.0	1	1.06606	0.93651				
	48	1	1.6	0.0	0.0	0.0	1	1.00193	0.0	63.0	1	1.06735	0.93651				
	49	1	14.899999999999999	10.4	0.0	0.0	1	1.01587	0.0	63.0	1	1.06349	0.96825				
	50	1	0.0	0.0	0.0	0.0	1	1.04222	0.0	225.0	1	1.08444	1.0				
	51	1	114.9	20.2	0.0	0.0	1	1.04222	0.0	225.0	1	1.08444	1.0				
	52	1	0.0	0.0	0.0	0.0	1	1.04445	0.0	225.0	1	1.08889	1.0				
	53	2	5.7	-6.6000000000000005	0.0	0.0	1	1.01587	0.0	63.0	1	1.06349	0.96825				
	54	1	0.0	0.0	0.0	0.0	1	1.02333	0.0	150.0	1	1.08	0.96667				
	55	1	65.6	18.0	0.0	80.0	1	1.0473	0.0	225.0	1	1.09459	1.0				
	56	1	0.0	0.0	0.0	0.0	1	1.05263	0.0	380.0	1	1.10526	1.0				
	57	1	146.4	39.1	0.0	0.0	1	1.03778	0.0	225.0	1	1.08889	0.98667				
	59	1	78.7	21.1	0.0	0.0	1	1.02889	0.0	225.0	1	1.08889	0.96889				
	60	1	125.2	37.6	0.0	0.0	1	1.05263	0.0	380.0	1	1.10526	1.0				
	61	1	6.0	1.0	0.0	0.0	1	1.0	0.0	63.0	1	1.06349	0.93651				
	63	1	36.1	4.7	0.0	7.7	1	1.01587	0.0	63.0	1	1.06349	0.96825				
	64	1	53.29999999999999	13.4	0.0	0.0	1	1.01111	0.0	225.0	1	1.08889	0.93333				
	65	1	0.0	0.0	0.0	0.0	1	1.01587	0.0	63.0	1	1.06349	0.96825				
	66	1	43.4	-0.7	0.0	0.0	1	0.94444	0.0	45.0	1	1.0	0.88889				
	67	1	41.3	12.8	0.0	0.0	1	0.98889	0.0	225.0	1	1.08889	0.88889				
	68	1	19.6	3.7000000000000006	0.0	0.0	1	1.0	0.0	20.0	1	1.2	0.8				
	69	1	320.7	74.9	0.0	0.0	1	1.04343	0.0	225.0	1	1.08685	1.0				
	70	1	140.9	-22.3	0.0	0.0	1	1.04445	0.0	225.0	1	1.08889	1.0				
	71	2	0.0	0.0	0.0	0.0	1	1.00442	0.0	150.0	1	1.10885	0.9				
	72	1	0.0	0.0	0.0	0.0	1	1.04445	0.0	225.0	1	1.08889	1.0				
	74	1	0.0	0.0	0.0	0.0	1	1.04445	0.0	225.0	1	1.08889	1.0				
	75	1	15.6	3.0	0.0	0.0	1	1.0	0.0	63.0	1	1.06349	0.93651				
	76	2	0.0	0.0	0.0	0.0	1	0.94444	0.0	45.0	1	1.0	0.88889				
	77	2	6.4	0.3	0.0	0.0	1	1.00272	0.0	63.0	1	1.08481	0.92063				
	78	1	4.8	2.4	0.0	0.0	1	1.04445	0.0	225.0	1	1.08889	1.0				
	79	1	17.4	1.7000000000000002	0.0	15.0	1	1.0	0.0	63.0	1	1.07937	0.92063				
	80	1	10.0	-0.6	0.0	0.0	1	1.00404	0.0	63.0	1	1.08744	0.92063				
	81	1	0.0	0.0	0.0	0.0	1	1.04445	0.0	225.0	1	1.08889	1.0				
	82	1	63.1	25.3	0.0	0.0	1	0.98889	0.0	225.0	1	1.08889	0.88889				
	83	1	44.1	1.9	0.0	0.0	1	1.01544	0.0	63.0	1	1.06349	0.9674				
	84	1	162.3	51.1	0.0	0.0	1	1.02889	0.0	225.0	1	1.08889	0.96889				
	85	1	0.0	0.0	0.0	0.0	1	1.05263	0.0	380.0	1	1.10526	1.0				
	86	1	58.3	14.099999999999998	0.0	0.0	1	1.01587	0.0	63.0	1	1.06349	0.96825				
	87	1	32.5	4.6	0.0	0.0	1	1.01587	0.0	63.0	1	1.06349	0.96825				
	88	1	1.5	0.7	0.0	0.0	1	1.01587	0.0	63.0	1	1.06349	0.96825				
	89	1	55.7	8.3	0.0	0.0	1	1.01587	0.0	63.0	1	1.06349	0.96825				
	90	1	0.0	0.0	0.0	0.0	1	1.04222	0.0	225.0	1	1.08444	1.0				
	91	1	190.1	8.0	0.0	0.0	1	1.04445	0.0	225.0	1	1.08889	1.0				
	92	1	36.8	-8.5	0.0	0.0	1	1.01187	0.0	225.0	1	1.09041	0.93333				
	93	1	0.0	0.0	0.0	0.0	1	1.00453	0.0	150.0	1	1.10907	0.9				
	94	1	35.7	55.7	0.0	0.0	1	1.04222	0.0	225.0	1	1.08444	1.0				
	95	1	0.0	0.0	0.0	0.0	1	1.03333	0.0	225.0	1	1.08889	0.97778				
	96	1	15.9	4.1	0.0	0.0	1	0.98889	0.0	225.0	1	1.08889	0.88889				
	97	1	40.4	6.5	0.0	0.0	1	1.01587	0.0	63.0	1	1.06349	0.96825				
	98	1	-3.5000000000000004	-1.6	0.0	0.0	1	1.01111	0.0	225.0	1	1.08889	0.93333				
	99	1	18.2	5.5	0.0	0.0	1	1.04445	0.0	225.0	1	1.08889	1.0				
	100	1	-17.2	-4.3	0.0	0.0	1	1.04445	0.0	225.0	1	1.08889	1.0				
	101	1	24.4	1.9	0.0	0.0	1	1.03778	0.0	225.0	1	1.08889	0.98667				
	102	1	0.0	0.0	0.0	80.0	1	0.98889	0.0	225.0	1	1.08889	0.88889				
	103	1	0.0	0.0	0.0	0.0	1	1.05263	0.0	380.0	1	1.10526	1.0				
	104	1	74.9	14.3	0.0	0.0	1	1.04445	0.0	225.0	1	1.08889	1.0				
	105	1	11.4	9.2	0.0	0.0	1	1.0	0.0	63.0	1	1.07937	0.92063				
	106	1	0.0	0.0	0.0	0.0	1	1.03333	0.0	225.0	1	1.08889	0.97778				
	107	1	5.7	10.3	0.0	0.0	1	1.01587	0.0	63.0	1	1.06349	0.96825				
	108	1	54.1	1.9	0.0	0.0	1	1.04222	0.0	225.0	1	1.08444	1.0				
	109	1	0.0	0.0	0.0	0.0	1	1.04222	0.0	225.0	1	1.08444	1.0				
	110	1	0.0	0.0	0.0	0.0	1	1.05131	0.0	380.0	1	1.10263	1.0				
	111	1	103.3	18.0	0.0	0.0	1	1.04222	0.0	225.0	1	1.08444	1.0				
	112	1	-1.5	2.2	0.0	0.0	1	1.04517	0.0	225.0	1	1.09035	1.0				
	113	1	47.0	9.8	0.0	0.0	1	0.98889	0.0	225.0	1	1.08889	0.88889				
	114	1	43.8	0.6	0.0	0.0	1	1.0	0.0	63.0	1	1.06349	0.93651				
	115	2	16.4	1.2	0.0	0.0	1	0.98889	0.0	225.0	1	1.08889	0.88889				
	116	1	56.89999999999999	18.9	0.0	0.0	1	0.98889	0.0	225.0	1	1.08889	0.88889				
	117	1	3.2	0.4	0.0	0.0	1	1.01587	0.0	63.0	1	1.06349	0.96825				
	118	1	44.0	10.0	0.0	0.0	1	1.0	0.0	63.0	1	1.07937	0.92063				
	119	1	28.499999999999996	-5.1	0.0	0.0	1	1.01587	0.0	63.0	1	1.06349	0.96825				
	120	2	0.0	0.0	0.0	0.0	1	1.00257	0.0	63.0	1	1.06863	0.93651				
	121	1	8.5	3.1	0.0	0.0	1	1.01587	0.0	63.0	1	1.06349	0.96825				
	122	1	142.7	-26.6	0.0	0.0	1	1.04445	0.0	225.0	1	1.08889	1.0				
	123	1	32.4	7.9	0.0	0.0	1	1.0	0.0	63.0	1	1.07937	0.92063				
	124	2	4.7	-2.0	0.0	0.0	1	1.00133	0.0	63.0	1	1.08203	0.92063				
	125	1	0.0	0.0	0.0	0.0	1	1.0	0.0	63.0	1	1.07937	0.92063				
	126	1	0.0	0.0	0.0	0.0	1	1.04445	0.0	225.0	1	1.08889	1.0				
	127	1	0.0	0.0	0.0	0.0	1	1.05263	0.0	380.0	1	1.10526	1.0				
	128	1	26.400000000000002	3.8	0.0	0.0	1	1.0	0.0	63.0	1	1.06349	0.93651				
	129	2	16.3	7.5	0.0	0.0	1	1.0	0.0	63.0	1	1.06349	0.93651				
	130	1	10.9	16.3	0.0	0.0	1	1.0	0.0	63.0	1	1.07937	0.92063				
	131	1	0.0	0.0	0.0	0.0	1	1.04445	0.0	225.0	1	1.08889	1.0				
	132	1	139.1	40.0	0.0	0.0	1	1.04445	0.0	225.0	1	1.08889	1.0				
	133	2	9.2	3.6000000000000005	0.0	0.0	1	1.01682	0.0	63.0	1	1.06538	0.96825				
	134	2	0.0	0.0	0.0	0.0	1	1.02333	0.0	150.0	1	1.08	0.96667				
	135	2	-14.899999999999999	-4.8	0.0	0.0	1	1.0	0.0	63.0	1	1.07937	0.92063				
	136	1	31.7	10.2	0.0	0.0	1	1.03778	0.0	225.0	1	1.08889	0.98667				
	137	1	9.7	-2.1	0.0	0.0	1	1.01587	0.0	63.0	1	1.06349	0.96825				
	138	1	12.8	5.8	0.0	0.0	1	1.04222	0.0	225.0	1	1.08444	1.0				
	140	1	0.0	0.0	0.0	0.0	1	1.05263	0.0	380.0	1	1.10526	1.0				
	141	1	20.8	1.1	0.0	0.0	1	1.04445	0.0	225.0	1	1.08889	1.0				
	142	1	10.3	9.6	0.0	0.0	1	1.04445	0.0	225.0	1	1.08889	1.0				
	143	1	28.7	2.3	0.0	0.0	1	1.01587	0.0	63.0	1	1.06349	0.96825				
	144	1	82.9	11.1	0.0	0.0	1	1.0	0.0	150.0	1	1.1	0.9				
	145	1	72.9	0.2	0.0	0.0	1	1.04462	0.0	225.0	1	1.08925	1.0				
	146	2	-3.7000000000000006	-0.5	0.0	0.0	1	1.04445	0.0	225.0	1	1.08889	1.0				
	147	1	0.0	0.0	0.0	0.0	1	1.01111	0.0	225.0	1	1.08889	0.93333				
	148	1	0.0	0.0	0.0	0.0	1	1.05263	0.0	380.0	1	1.10526	1.0				
	149	1	0.0	0.0	0.0	0.0	1	1.04445	0.0	225.0	1	1.08889	1.0				
	150	1	0.0	0.0	0.0	0.0	1	1.03778	0.0	225.0	1	1.08889	0.98667				
	151	1	24.0	9.7	0.0	0.0	1	1.04445	0.0	225.0	1	1.08889	1.0				
	153	1	137.1	23.1	0.0	0.0	1	1.01111	0.0	225.0	1	1.08889	0.93333				
	154	1	0.0	0.0	0.0	0.0	1	1.05263	0.0	380.0	1	1.10526	1.0				
	155	1	55.3	18.4	0.0	0.0	1	1.04445	0.0	225.0	1	1.08889	1.0				
	156	1	30.9	4.2	0.0	0.0	1	1.00077	0.0	63.0	1	1.06503	0.93651				
	157	1	2.4	0.4	0.0	0.0	1	1.01587	0.0	63.0	1	1.06349	0.96825				
	158	2	27.500000000000004	2.2	0.0	0.0	1	1.0	0.0	63.0	1	1.07937	0.92063				
	159	1	24.3	1.9	0.0	0.0	1	1.01587	0.0	63.0	1	1.06349	0.96825				
	160	1	5.6	3.0	0.0	0.0	1	1.0	0.0	63.0	1	1.06349	0.93651				
	161	2	0.0	0.0	0.0	0.0	1	0.975	0.0	63.0	1	1.15	0.8				
	162	1	0.5	-40.5	0.0	0.0	1	1.04527	0.0	225.0	1	1.09053	1.0				
	163	1	0.0	0.0	0.0	0.0	1	1.01587	0.0	63.0	1	1.06349	0.96825				
	164	1	109.3	-1.7000000000000002	0.0	0.0	1	1.04895	0.0	225.0	1	1.09791	1.0				
	165	1	187.3	17.6	0.0	0.0	1	1.03778	0.0	225.0	1	1.08889	0.98667				
	166	1	51.6	6.2	0.0	0.0	1	1.01587	0.0	63.0	1	1.06349	0.96825				
	167	1	119.30000000000001	36.7	0.0	0.0	1	1.04534	0.0	225.0	1	1.09067	1.0				
	168	1	14.099999999999998	-5.7	0.0	0.0	1	1.0	0.0	63.0	1	1.06349	0.93651				
	169	1	24.1	-4.6	0.0	0.0	1	1.01587	0.0	63.0	1	1.06349	0.96825				
	170	1	1.8000000000000003	0.3	0.0	0.0	1	1.00236	0.0	63.0	1	1.06822	0.93651				
	171	1	181.5	51.4	0.0	0.0	1	1.00667	0.0	225.0	1	1.08889	0.92444				
	172	1	0.0	1.2	0.0	0.0	1	1.01587	0.0	63.0	1	1.06349	0.96825				
	173	1	82.5	15.9	0.0	0.0	1	1.04141	0.0	225.0	1	1.09616	0.98667				
	174	1	0.0	0.0	0.0	0.0	1	1.05263	0.0	380.0	1	1.10526	1.0				
	175	1	120.7	-49.6	0.0	0.0	1	1.04222	0.0	225.0	1	1.08444	1.0				
	177	1	0.0	0.0	0.0	0.0	1	1.01217	0.0	63.0	1	1.06349	0.96086				
	178	1	0.0	0.0	0.0	0.0	1	1.04222	0.0	225.0	1	1.08444	1.0				
	179	1	0.0	0.0	0.0	0.0	1	1.05131	0.0	380.0	1	1.10263	1.0				
	180	1	5.0	0.6	0.0	0.0	1	1.01111	0.0	225.0	1	1.08889	0.93333				
	181	1	-3.0	-14.3	0.0	0.0	1	0.9527	0.0	45.0	1	1.01652	0.88889				
	182	1	0.0	0.0	0.0	0.0	1	1.0	0.0	63.0	1	1.06349	0.93651				
	183	1	0.0	0.0	0.0	0.0	1	1.01111	0.0	225.0	1	1.08889	0.93333				
	184	1	0.0	0.0	0.0	0.0	1	1.03333	0.0	225.0	1	1.08889	0.97778				
	185	1	22.3	-2.2	0.0	0.0	1	1.0	0.0	63.0	1	1.06349	0.93651				
	186	1	-2.4	-2.2	0.0	0.0	1	1.04931	0.0	225.0	1	1.09862	1.0				
	187	1	0.0	0.0	0.0	0.0	1	1.05263	0.0	380.0	1	1.10526	1.0				
	188	1	0.0	0.0	0.0	0.0	1	1.04175	0.0	225.0	1	1.09683	0.98667				
	189	1	0.0	0.0	0.0	0.0	1	1.05263	0.0	380.0	1	1.10526	1.0				
	190	1	39.7	-5.2	0.0	0.0	1	1.02889	0.0	225.0	1	1.08889	0.96889				
	191	1	36.6	-1.4	0.0	0.0	1	1.01587	0.0	63.0	1	1.06349	0.96825				
	192	1	38.7	6.800000000000001	0.0	0.0	1	1.04222	0.0	225.0	1	1.08444	1.0				
	193	1	51.7	10.5	0.0	0.0	1	1.05263	0.0	380.0	1	1.10526	1.0				
	194	1	0.0	0.0	0.0	0.0	1	1.0	0.0	63.0	1	1.06349	0.93651				
	195	1	0.0	0.0	0.0	0.0	1	1.01111	0.0	225.0	1	1.08889	0.93333				
	196	1	0.0	0.0	0.0	0.0	1	1.05263	0.0	380.0	1	1.10526	1.0				
	197	1	6.2	17.4	0.0	0.0	1	1.01587	0.0	63.0	1	1.06349	0.96825				
	198	1	0.0	0.0	0.0	0.0	1	1.04222	0.0	225.0	1	1.08444	1.0				
	199	1	250.8	25.3	0.0	0.0	1	1.04222	0.0	225.0	1	1.08444	1.0				
	200	1	47.3	6.4	0.0	0.0	1	1.01111	0.0	225.0	1	1.08889	0.93333				
	201	1	51.0	0.4	0.0	0.0	1	1.04514	0.0	225.0	1	1.09027	1.0				
	202	1	0.0	0.0	0.0	0.0	1	1.04765	0.0	225.0	1	1.09529	1.0				
	203	1	76.8	4.7	0.0	0.0	1	1.04445	0.0	225.0	1	1.08889	1.0				
	204	1	31.4	-2.8	0.0	0.0	1	1.04445	0.0	225.0	1	1.08889	1.0				
	205	1	0.0	0.0	0.0	0.0	1	1.01587	0.0	63.0	1	1.06349	0.96825				
	206	1	0.0	0.0	0.0	0.0	1	1.04222	0.0	225.0	1	1.08444	1.0				
	207	1	13.900000000000002	5.2	0.0	0.0	1	1.01587	0.0	63.0	1	1.06349	0.96825				
...
];

%% generator data
%    bus    Pg    Qg    Qmax    Qmin    Vg    mBase    status    Pmax    Pmin    Pc1    Pc2    Qc1min    Qc1max    Qc2min    Qc2max    ramp_agc    ramp_10    ramp_30    ramp_q    apf
mpc.gen = [
	1279	0.0	0.0	15.0	-15.0	1.044445	100.0	0	35.0	7.000000000000001															
	1210	21.66	2.5	20.0	-15.0	1.0	100.0	1	36.1	7.22															
	751	27.6	6.0	21.0	-9.0	1.0158755	100.0	1	46.0	9.2															
	2777	2.0	0.0	0.1	-0.1	1.0	100.0	1	4.0	0.0															
	2777	4.2	0.95	1.0	0.9000000000000001	1.0	100.0	1	7.000000000000001	1.4															
	978	7.200000000000001	-1.5	4.0	-7.000000000000001	1.0	100.0	1	12.0	2.4															
	158	1.35	0.0	0.0	0.0	1.0000025	100.0	1	2.7	0.0															
	1217	7.8	0.0	5.0	-5.0	1.022612	100.0	1	13.0	2.6															
	367	30.0	9.0	27.0	-9.0	1.0	100.0	1	50.0	10.0															
	1127	9.6	0.0	0.0	0.0	1.015872	100.0	1	16.0	3.2															
	460	0.0	0.0	40.0	-40.0	1.04643	100.0	0	62.0	12.4															
	968	10.8	0.0	10.0	-10.0	1.0000025	100.0	1	18.0	3.6000000000000005															
	1827	13.200000000000001	-2.5	7.000000000000001	-12.0	1.033334	100.0	1	22.0	4.4															
	1466	20.5	-5.0	5.0	-15.0	1.0	100.0	1	40.0	1.0															
	2863	20.5	0.0	6.0	-6.0	1.0	100.0	1	40.0	1.0															
	1466	20.5	-5.0	5.0	-15.0	1.0	100.0	1	40.0	1.0															
	2863	20.5	0.0	6.0	-6.0	1.0	100.0	1	40.0	1.0															
	1072	0.0	0.0	1.0	0.9000000000000001	1.00445	100.0	0	12.0	2.4															
	1072	0.0	0.0	1.0	0.9000000000000001	1.00445	100.0	0	14.000000000000002	2.8															
	1072	0.0	0.0	1.0	0.9000000000000001	1.00445	100.0	0	12.0	2.4															
	642	6.2	0.0	3.0	-3.0	1.021212	100.0	1	10.33	2.07															
	642	6.2	0.0	3.0	-3.0	1.021212	100.0	1	10.33	2.07															
	542	27.500000000000004	6.0	22.0	-10.0	1.015872	100.0	1	50.0	5.0															
	773	7.200000000000001	0.0	0.0	0.0	1.0000025	100.0	1	12.0	2.4															
	399	8.28	0.0	0.0	0.0	1.015872	100.0	1	13.8	2.76															
	399	0.6	0.0	0.0	0.0	1.015872	100.0	1	1.2	0.0															
	21	14.400000000000002	0.0	0.0	0.0	0.9888895	100.0	1	24.0	4.8															
	21	16.56	0.0	0.0	0.0	0.9888895	100.0	1	27.6	5.52															
	899	10.8	0.0	0.0	0.0	1.000709	100.0	1	18.0	3.6000000000000005															
	899	12.6	0.0	0.0	0.0	1.000709	100.0	1	21.0	4.2															
	2618	3.6000000000000005	0.0	0.0	0.0	0.999999	100.0	1	6.0	1.2															
	2618	22.5	2.0	10.0	-6.0	0.999999	100.0	1	37.5	7.5															
	285	3.6000000000000005	0.0	0.0	0.0	0.999999	100.0	1	6.0	1.2															
	285	22.5	2.0	10.0	-6.0	0.999999	100.0	1	37.5	7.5															
	135	7.8	-0.5	5.0	-6.0	1.0000025	100.0	1	13.0	2.6															
	53	10.8	0.0	0.8	-0.8	1.015872	100.0	1	18.0	3.6000000000000005															
	53	10.8	0.0	0.8	-0.8	1.015872	100.0	1	18.0	3.6000000000000005															
	596	2.0	0.0	0.0	0.0	1.04598	100.0	1	4.0	0.0															
	958	2.3	0.0	0.0	0.0	0.975	100.0	1	4.6	0.0															
	1679	12.6	1.0	6.0	-4.0	1.0	100.0	1	21.0	4.2															
	1679	12.6	1.1	6.7	-4.5	1.0	100.0	1	21.0	4.2															
	1157	4.32	0.0	0.0	0.0	1.015872	100.0	1	7.200000000000001	1.44															
	513	0.0	0.0	5.0	1.0	1.0	100.0	0	11.0	2.2															
	513	0.0	0.0	5.0	1.0	1.0	100.0	0	11.0	2.2															
	371	4.8	0.0	5.0	-5.0	0.999999	100.0	1	8.0	1.6															
	371	4.8	0.0	5.0	-5.0	0.999999	100.0	1	8.0	1.6															
	976	21.0	-1.5	12.0	-15.0	1.015872	100.0	1	35.0	7.000000000000001															
	976	21.0	-1.5	12.0	-15.0	1.015872	100.0	1	35.0	7.000000000000001															
	2754	6.9	0.0	0.0	0.0	1.019477	100.0	1	11.5	2.3															
	749	0.0	0.0	5.0	-5.0	0.9444445	100.0	0	8.5	1.7000000000000002															
	1188	12.0	1.95	2.0	1.9	1.004635	100.0	1	20.0	4.0															
	1254	14.400000000000002	0.0	7.000000000000001	-7.000000000000001	1.001289	100.0	1	24.0	4.8															
	252	6.6000000000000005	1.5	8.0	-5.0	0.9444445	100.0	1	11.0	2.2															
	252	5.4	0.5	6.0	-5.0	0.9444445	100.0	1	9.0	1.8000000000000003															
	252	6.6000000000000005	1.5	8.0	-5.0	0.9444445	100.0	1	11.0	2.2															
	252	5.4	0.5	6.0	-5.0	0.9444445	100.0	1	9.0	1.8000000000000003															
	504	7.44	0.0	6.5	-6.5	0.9445145	100.0	1	12.4	2.48															
	115	15.18	0.0	0.0	0.0	0.9888895	100.0	1	25.3	5.06															
	967	1.15	0.0	0.0	0.0	1.0000025	100.0	1	2.3	0.0															
	1811	5.4	0.0	5.5	-5.5	1.003809	100.0	1	9.0	1.8000000000000003															
	2634	8.4	0.0	7.000000000000001	-7.000000000000001	1.0000025	100.0	1	14.000000000000002	2.8															
	326	8.4	0.0	7.000000000000001	-7.000000000000001	1.0000025	100.0	1	14.000000000000002	2.8															
	1829	7.68	0.0	7.7	-7.7	0.999999	100.0	1	12.8	2.56															
	1314	23.4	0.0	19.0	-19.0	1.005695	100.0	1	39.0	7.8															
	71	18.0	3.0	10.0	-4.0	1.004425	100.0	1	30.0	6.0															
	93	0.0	0.0	2.0	1.9	1.004535	100.0	0	6.0	1.2															
	129	6.6000000000000005	0.0	4.0	-4.0	0.999999	100.0	1	11.0	2.2															
	1594	7.200000000000001	0.0	5.0	-5.0	1.021962	100.0	1	12.0	2.4															
	1594	7.200000000000001	0.0	5.0	-5.0	1.021962	100.0	1	12.0	2.4															
	1354	2.5	0.0	2.0	-2.0	1.015872	100.0	1	5.0	0.0															
	1133	10.35	0.0	0.0	0.0	1.015872	100.0	1	17.25	3.45															
	1405	22.68	2.0	12.0	-8.0	1.0	100.0	1	37.8	7.5600000000000005															
	2850	22.68	2.0	12.0	-8.0	1.0	100.0	1	37.8	7.5600000000000005															
	2849	22.68	2.0	12.0	-8.0	1.0	100.0	1	37.8	7.5600000000000005															
	1122	4.14	0.0	0.0	0.0	1.015872	100.0	1	6.9	1.38															
	1708	44.5	9.0	27.0	-9.0	1.0377785	100.0	1	45.0	44.0															
	1708	44.5	9.0	27.0	-9.0	1.0377785	100.0	1	45.0	44.0															
	1658	17.94	0.0	0.0	0.0	1.0000025	100.0	1	29.9	5.98															
	2884	8.22	0.0	0.0	0.0	1.0000025	100.0	1	13.699999999999998	2.74															
	1154	12.48	0.0	0.0	0.0	0.999999	100.0	1	20.8	4.16															
	231	4.98	0.0	8.3	-8.3	1.0111115	100.0	1	8.3	1.66															
	2887	14.219999999999999	2.0	7.000000000000001	-3.0	1.0	100.0	1	23.7	4.74															
	2888	14.219999999999999	2.0	7.000000000000001	-3.0	1.0	100.0	1	23.7	4.74															
	1666	14.219999999999999	2.0	7.000000000000001	-3.0	1.0	100.0	1	23.7	4.74															
	499	10.2	0.95	1.0	0.9000000000000001	1.0287175	100.0	1	17.0	3.4000000000000004															
	499	4.2	0.95	1.0	0.9000000000000001	1.0287175	100.0	1	7.000000000000001	1.4															
	499	10.2	0.95	1.0	0.9000000000000001	1.0287175	100.0	1	17.0	3.4000000000000004															
	2709	14.400000000000002	0.0	4.0	-4.0	1.0	100.0	1	24.0	4.8															
	709	14.400000000000002	0.0	4.0	-4.0	1.0	100.0	1	24.0	4.8															
	2710	14.400000000000002	0.0	4.0	-4.0	1.0	100.0	1	24.0	4.8															
	2708	14.400000000000002	0.0	4.0	-4.0	1.0	100.0	1	24.0	4.8															
	1280	10.8	0.0	0.0	0.0	1.001694	100.0	1	18.0	3.6000000000000005															
	1493	0.0	0.0	11.0	-11.0	0.9444445	100.0	0	18.0	3.6000000000000005															
	745	17.4	-5.0	8.0	-18.0	0.999999	100.0	1	28.999999999999996	5.8															
	2727	17.4	-6.5	5.0	-18.0	0.999999	100.0	1	28.999999999999996	5.8															
	1445	33.0	0.0	0.0	0.0	1.026667	100.0	1	55.00000000000001	11.0															
	316	2.5	0.95	1.0	0.9000000000000001	0.976703	100.0	1	5.0	0.0															
	316	5.88	-0.145	3.1400000000000006	-3.4300000000000006	0.976703	100.0	1	9.8	1.96															
	564	6.0	0.0	0.0	0.0	1.015872	100.0	1	10.0	2.0															
	1047	7.200000000000001	0.0	0.0	0.0	1.000539	100.0	1	12.0	2.4															
	1047	1.0	0.0	0.0	0.0	1.000539	100.0	1	2.0	0.0															
	1335	1.0	1.0	3.0	-1.0	1.003809	100.0	1	2.0	0.0															
	2624	18.6	-1.0	15.0	-17.0	1.0	100.0	1	31.0	6.2															
	298	18.6	-1.0	15.0	-17.0	1.0	100.0	1	31.0	6.2															
	298	18.6	-1.0	15.0	-17.0	1.0	100.0	1	31.0	6.2															
	2625	18.6	-1.0	15.0	-17.0	1.0	100.0	1	31.0	6.2															
	2625	18.6	-1.0	15.0	-17.0	1.0	100.0	1	31.0	6.2															
	2624	18.6	-1.0	15.0	-17.0	1.0	100.0	1	31.0	6.2															
	2721	14.400000000000002	-0.005	0.0	-0.01	1.0	100.0	1	24.0	4.8															
	2718	14.400000000000002	0.5	8.0	-7.000000000000001	1.0	100.0	1	24.0	4.8															
	741	14.400000000000002	0.5	8.0	-7.000000000000001	1.0	100.0	1	24.0	4.8															
	2719	14.400000000000002	0.5	8.0	-7.000000000000001	1.0	100.0	1	24.0	4.8															
	2720	14.400000000000002	0.5	8.0	-7.000000000000001	1.0	100.0	1	24.0	4.8															
	283	14.099999999999998	0.0	8.0	-8.0	0.9888895	100.0	1	23.5	4.7															
	1506	16.2	-2.5	6.0	-11.0	1.016412	100.0	1	27.0	5.4															
	1506	16.2	-2.5	6.0	-11.0	1.016412	100.0	1	27.0	5.4															
	1847	19.2	2.0	12.0	-8.0	1.015872	100.0	1	32.0	6.4															
	1398	12.01	0.0	0.0	0.0	1.0000025	100.0	1	20.02	4.0															
	1398	12.21	0.0	0.0	0.0	1.0000025	100.0	1	20.35	4.07															
	225	27.0	0.0	45.0	-45.0	1.0	100.0	1	45.0	9.0															
	225	27.0	0.0	45.0	-45.0	1.0	100.0	1	45.0	9.0															
	1607	0.8699999999999999	0.0	0.0	0.0	1.0000025	100.0	1	1.7399999999999998	0.0															
	314	12.0	0.0	10.0	-10.0	0.9448795	100.0	1	20.0	4.0															
	2680	141.5	20.0	100.0	-60.0	1.0	100.0	1	239.0	44.0															
	582	125.49999999999999	12.5	70.0	-45.0	1.0	100.0	1	169.0	82.0															
	2978	125.49999999999999	12.5	70.0	-45.0	1.0	100.0	1	169.0	82.0															
	2977	141.5	20.0	100.0	-60.0	1.0	100.0	1	239.0	44.0															
	240	143.4	2.5	80.0	-75.0	1.05347	100.0	1	239.0	47.8															
	1655	7.200000000000001	0.0	0.0	0.0	0.999999	100.0	1	12.0	2.4															
	1655	2.0	0.0	0.0	0.0	0.999999	100.0	1	4.0	0.0															
	1150	32.4	0.0	0.0	0.0	1.0377785	100.0	1	54.0	10.8															
	1447	4.2	-0.5	2.0	-3.0	1.015872	100.0	1	7.000000000000001	1.4															
	906	0.0	0.0	8.0	-8.0	1.04623	100.0	0	21.0	4.2															
	1474	0.0	-0.0	1.0	-1.0	1.015872	100.0	0	2.0	0.0															
	1474	4.8	0.0	3.0	-3.0	1.015872	100.0	1	8.0	1.6															
	1474	4.8	0.0	3.0	-3.0	1.015872	100.0	1	8.0	1.6															
	963	5.34	-0.5	1.0	-2.0	1.015872	100.0	1	8.9	1.78															
	962	13.200000000000001	0.0	0.0	0.0	1.0000025	100.0	1	22.0	4.4															
	923	7.200000000000001	0.0	5.0	-5.0	1.015872	100.0	1	12.0	2.4															
	1153	9.6	0.0	17.3	-17.3	1.001654	100.0	1	16.0	3.2															
	1153	10.08	0.0	10.0	-10.0	1.001654	100.0	1	16.8	3.36															
	274	4.02	0.0	3.7000000000000006	-3.7000000000000006	0.999999	100.0	1	6.7	1.34															
	274	3.36	0.0	3.0	-3.0	0.999999	100.0	1	5.6	1.12															
	1776	6.0	0.0	5.0	-5.0	1.015872	100.0	1	10.0	2.0															
	1776	6.0	0.0	5.0	-5.0	1.015872	100.0	1	10.0	2.0															
	2914	6.0	0.0	5.0	-5.0	1.015872	100.0	1	10.0	2.0															
	2914	6.0	0.0	5.0	-5.0	1.015872	100.0	1	10.0	2.0															
	184	0.0	0.0	8.0	-17.0	1.033334	100.0	0	23.4	4.68															
	1657	15.6	-0.5	16.0	-17.0	1.0233335	100.0	1	26.0	5.2															
	1657	15.6	-0.5	16.0	-17.0	1.0233335	100.0	1	26.0	5.2															
	1761	1.25	0.0	0.1	-0.1	1.00445	100.0	1	2.5	0.0															
	1761	0.0	0.0	1.0	0.9000000000000001	1.00445	100.0	0	11.0	2.2															
	1868	18.0	0.0	18.0	-18.0	0.999999	100.0	1	30.0	6.0															
	1868	18.0	0.0	18.0	-18.0	0.999999	100.0	1	30.0	6.0															
	731	0.0	0.0	26.0	-26.0	0.999999	100.0	0	43.0	8.6															
	2715	0.0	0.0	20.0	-20.0	0.999999	100.0	0	38.0	7.6															
	1263	13.86	0.0	14.000000000000002	-14.000000000000002	0.999999	100.0	1	23.1	4.62															
	1263	13.86	0.0	14.000000000000002	-14.000000000000002	0.999999	100.0	1	23.1	4.62															
	161	10.8	0.0	5.0	-5.0	0.975	100.0	1	18.0	3.6000000000000005															
	604	6.12	0.0	6.0	-6.0	0.999999	100.0	1	10.2	2.04															
	918	15.6	0.0	0.0	0.0	1.0000025	100.0	1	26.0	5.2															
	1760	6.9	0.0	1.0	-1.0	1.0013775	100.0	1	11.5	2.3															
	1760	6.9	0.0	1.0	-1.0	1.0013775	100.0	1	11.5	2.3															
	1414	7.8	0.0	7.8	-7.8	0.999999	100.0	1	13.0	2.6															
	1414	7.200000000000001	0.0	7.200000000000001	-7.200000000000001	0.999999	100.0	1	12.0	2.4															
	662	24.0	1.0	20.0	-18.0	1.0	100.0	1	40.0	8.0															
	2697	24.0	1.0	20.0	-18.0	1.0	100.0	1	40.0	8.0															
	2696	24.0	1.0	20.0	-18.0	1.0	100.0	1	40.0	8.0															
	1346	7.200000000000001	0.0	7.000000000000001	-7.000000000000001	0.999999	100.0	1	12.0	2.4															
	1346	7.200000000000001	0.0	7.000000000000001	-7.000000000000001	0.999999	100.0	1	12.0	2.4															
	2622	4.8	0.0	26.0	-26.0	1.0	100.0	1	8.0	1.6															
	2622	9.0	0.0	26.0	-26.0	1.0	100.0	1	15.0	3.0															
	291	11.4	0.0	26.0	-26.0	1.0	100.0	1	19.0	3.8															
	1490	6.36	0.0	6.5	-6.5	0.999999	100.0	1	10.6	2.12															
	1671	12.839999999999998	0.0	15.0	-15.0	1.0158755	100.0	1	21.4	4.28															
	1615	23.4	0.0	24.0	-24.0	0.999999	100.0	1	39.0	7.8															
	1681	52.2	0.8699999999999999	26.1	-24.36	1.044445	100.0	1	87.0	17.4															
	418	45.0	5.0	50.0	-40.0	1.0	100.0	1	75.0	15.0															
	2658	45.0	5.0	50.0	-40.0	1.0	100.0	1	75.0	15.0															
	418	45.0	5.0	50.0	-40.0	1.0	100.0	1	75.0	15.0															
	2658	45.0	5.0	50.0	-40.0	1.0	100.0	1	75.0	15.0															
	461	24.84	0.415	12.42	-11.59	1.044445	100.0	1	41.4	8.28															
	31	4.01	0.0	0.0	0.0	1.004309	100.0	1	6.68	1.34															
	236	9.0	3.5000000000000004	7.000000000000001	0.0	1.015872	100.0	1	15.0	3.0															
	236	9.0	3.5000000000000004	7.000000000000001	0.0	1.015872	100.0	1	15.0	3.0															
	1754	0.5	0.0	1.0	-1.0	1.015872	100.0	1	1.0	0.0															
	1754	0.5	0.0	1.0	-1.0	1.015872	100.0	1	1.0	0.0															
	1754	0.5	0.0	1.0	-1.0	1.015872	100.0	1	1.0	0.0															
	898	0.8500000000000001	0.0	0.0	0.0	1.001324	100.0	1	1.7000000000000002	0.0															
	898	13.56	0.0	0.0	0.0	1.001324	100.0	1	22.6	4.52															
	120	9.0	0.0	9.0	-9.0	1.002569	100.0	1	15.0	3.0															
	549	27.500000000000004	6.0	22.0	-10.0	1.015872	100.0	1	50.0	5.0															
	77	14.099999999999998	0.0	0.0	0.0	1.0027225	100.0	1	23.5	4.7															
	124	-3.5000000000000004	0.0	0.0	0.0	1.0013325	100.0	1	0.0	-7.000000000000001															
	124	-3.5000000000000004	0.0	0.0	0.0	1.0013325	100.0	1	0.0	-7.000000000000001															
	552	12.6	0.0	0.0	0.0	1.015872	100.0	1	21.0	4.2															
	1858	5.76	0.0	6.0	-6.0	0.9444445	100.0	1	9.6	1.92															
	134	15.0	2.0	13.0	-9.0	1.0233335	100.0	1	25.0	5.0															
	1204	25.2	2.5	25.0	-20.0	1.00031	100.0	1	42.0	8.4															
	1204	25.2	2.5	25.0	-20.0	1.00031	100.0	1	42.0	8.4															
...
];

%% branch data
%    f_bus    t_bus    r    x    b    rateA    rateB    rateC    ratio    angle    status    angmin    angmax
mpc.branch = [
	639	1	0.005799	0.010615	0.0075	2441.0	2441.0	2441.0	0	0	1	-29.999999999999996	29.999999999999996								
	2771	2	0.002607	0.017462	0.0324	540.0	540.0	540.0	0	0	1	-29.999999999999996	29.999999999999996								
	2575	3	2.1e-5	0.000125	0.1386	737.0	737.0	737.0	0	0	1	-29.999999999999996	29.999999999999996								
	875	3	0.000145	0.001877	0.0635	2487.0	2487.0	2487.0	0	0	1	-29.999999999999996	29.999999999999996								
	1710	3	0.000319	0.003234	0.0838	1841.0	1841.0	1841.0	0	0	1	-29.999999999999996	29.999999999999996								
	46	3	2.1e-5	0.000125	0.1386	737.0	737.0	737.0	0	0	1	-29.999999999999996	29.999999999999996								
	1073	4	0.037541	0.100529	0.0011	284.0	284.0	284.0	0	0	1	-29.999999999999996	29.999999999999996								
	1533	4	0.090199	0.211388	0.0023	133.0	133.0	133.0	0	0	1	-29.999999999999996	29.999999999999996								
	1658	4	0.09801	0.267574	0.0	107.0	107.0	107.0	0	0	1	-29.999999999999996	29.999999999999996								
	1370	5	0.009383	0.019753	0.0	1194.0	1194.0	1194.0	0	0	1	-29.999999999999996	29.999999999999996								
	1370	6	0.001975	0.004444	0.0	5369.0	5369.0	5369.0	0	0	1	-29.999999999999996	29.999999999999996								
	199	7	0.006163	0.041067	0.0759	446.0	446.0	446.0	0	0	1	-29.999999999999996	29.999999999999996								
	880	7	0.000652	0.004369	0.0081	558.0	558.0	558.0	0	0	1	-29.999999999999996	29.999999999999996								
	1061	8	0.067019	0.137566	0.0037	193.0	193.0	193.0	0	0	1	-29.999999999999996	29.999999999999996								
	1223	8	0.032754	0.088939	0.0039	312.0	312.0	312.0	0	0	1	-29.999999999999996	29.999999999999996								
	1223	8	0.030184	0.080096	0.0053	345.0	345.0	345.0	0	0	1	-29.999999999999996	29.999999999999996								
	1371	10	0.009733	0.034089	0.0185	944.0	944.0	944.0	0	0	1	-29.999999999999996	29.999999999999996								
	147	11	0.000277	0.002015	0.003	288.0	288.0	288.0	0	0	1	-29.999999999999996	29.999999999999996								
	387	2571	0.00881	0.033995	0.0607	289.0	289.0	289.0	0	0	1	-29.999999999999996	29.999999999999996								
	437	2571	0.004642	0.019832	0.0354	254.99999999999997	254.99999999999997	254.99999999999997	0	0	1	-29.999999999999996	29.999999999999996								
	955	11	0.008861	0.03506	0.0623	288.0	288.0	288.0	0	0	1	-29.999999999999996	29.999999999999996								
	991	11	0.006993	0.032869	0.0557	254.99999999999997	254.99999999999997	254.99999999999997	0	0	1	-29.999999999999996	29.999999999999996								
	1774	2571	0.002173	0.008731	0.0152	3440.9999999999995	3440.9999999999995	3440.9999999999995	0	0	1	-29.999999999999996	29.999999999999996								
	1817	11	0.00077	0.003121	0.0051	9629.0	9629.0	9629.0	0	0	1	-29.999999999999996	29.999999999999996								
	2092	2571	0.004109	0.016138	0.0284	288.0	288.0	288.0	0	0	1	-29.999999999999996	29.999999999999996								
	2591	12	8.3e-5	0.000907	0.0202	1034.0	1034.0	1034.0	0	0	1	-29.999999999999996	29.999999999999996								
	419	12	0.000552	0.006726	0.0939	1786.0	1786.0	1786.0	0	0	1	-29.999999999999996	29.999999999999996								
	808	12	0.000512	0.008012	0.2455	2462.0	2462.0	2462.0	0	0	1	-29.999999999999996	29.999999999999996								
	1158	12	0.001107	0.00918	0.1906	1644.0000000000002	1644.0000000000002	1644.0000000000002	0	0	1	-29.999999999999996	29.999999999999996								
	148	2572	6.2e-5	0.000741	0.0173	1095.0	1095.0	1095.0	0	0	1	-29.999999999999996	29.999999999999996								
	808	12	0.000512	0.008019	0.2455	2462.0	2462.0	2462.0	0	0	1	-29.999999999999996	29.999999999999996								
	808	2572	0.001153	0.013123	0.1841	1433.0	1433.0	1433.0	0	0	1	-29.999999999999996	29.999999999999996								
	167	13	0.000158	0.000672	0.0719	331.0	331.0	331.0	0	0	1	-29.999999999999996	29.999999999999996								
	1463	13	4.5e-5	8.9e-5	0.002	268.0	268.0	268.0	0	0	1	-29.999999999999996	29.999999999999996								
	820	14	0.033258	0.090955	0.001	305.0	305.0	305.0	0	0	1	-29.999999999999996	29.999999999999996								
	465	15	0.071303	0.180902	0.0021	152.0	152.0	152.0	0	0	1	-29.999999999999996	29.999999999999996								
	878	15	0.071554	0.18191	0.0021	152.0	152.0	152.0	0	0	1	-29.999999999999996	29.999999999999996								
	2664	16	0.00478	0.028622	0.0547	455.0	455.0	455.0	0	0	1	-29.999999999999996	29.999999999999996								
	451	16	0.00478	0.028583	0.0547	455.0	455.0	455.0	0	0	1	-29.999999999999996	29.999999999999996								
	151	17	0.000257	0.000514	0.0294	53862.0	53862.0	53862.0	0	0	1	-29.999999999999996	29.999999999999996								
	987	18	0.000257	0.002153	0.2147	451.99999999999994	451.99999999999994	451.99999999999994	0	0	1	-29.999999999999996	29.999999999999996								
	1264	18	0.000277	0.000869	0.0931	480.99999999999994	480.99999999999994	480.99999999999994	0	0	1	-29.999999999999996	29.999999999999996								
	1903	19	0.000756	0.00252	0.0	11716.0	11716.0	11716.0	0	0	1	-29.999999999999996	29.999999999999996								
	1247	20	0.000237	0.00083	0.1863	268.0	268.0	268.0	0	0	1	-29.999999999999996	29.999999999999996								
	1301	20	0.000178	0.000612	0.1377	268.0	268.0	268.0	0	0	1	-29.999999999999996	29.999999999999996								
	59	21	0.002568	0.011753	0.0203	424.0	424.0	424.0	0	0	1	-29.999999999999996	29.999999999999996								
	1908	21	0.002568	0.011615	0.0228	290.0	290.0	290.0	0	0	1	-29.999999999999996	29.999999999999996								
	591	22	0.102293	0.226757	0.0025	122.0	122.0	122.0	0	0	1	-29.999999999999996	29.999999999999996								
	855	22	0.177551	0.405291	0.0046	68.0	68.0	68.0	0	0	1	-29.999999999999996	29.999999999999996								
	1199	22	0.088264	0.161566	0.0017	163.0	163.0	163.0	0	0	1	-29.999999999999996	29.999999999999996								
	820	23	0.043336	0.11867	0.001	234.0	234.0	234.0	0	0	1	-29.999999999999996	29.999999999999996								
	1059	23	0.067775	0.139834	0.001	191.0	191.0	191.0	0	0	1	-29.999999999999996	29.999999999999996								
	1691	23	0.047367	0.16125	0.0021	177.0	177.0	177.0	0	0	1	-29.999999999999996	29.999999999999996								
	1922	23	0.004031	0.016629	0.001	1726.0000000000002	1726.0000000000002	1726.0000000000002	0	0	1	-29.999999999999996	29.999999999999996								
	1377	24	9.9e-5	0.00077	0.078	379.0	379.0	379.0	0	0	1	-29.999999999999996	29.999999999999996								
	1377	2573	9.9e-5	0.00077	0.077	379.0	379.0	379.0	0	0	1	-29.999999999999996	29.999999999999996								
	1908	25	0.000514	0.003437	0.0061	290.0	290.0	290.0	0	0	1	-29.999999999999996	29.999999999999996								
	1914	25	0.005476	0.036879	0.1255	522.0	522.0	522.0	0	0	1	-29.999999999999996	29.999999999999996								
	59	25	0.000514	0.003457	0.0061	418.0	418.0	418.0	0	0	1	-29.999999999999996	29.999999999999996								
	1138	26	0.003477	0.01118	0.0187	304.0	304.0	304.0	0	0	1	-29.999999999999996	29.999999999999996								
	1409	26	0.000612	0.003121	0.0152	270.0	270.0	270.0	0	0	1	-29.999999999999996	29.999999999999996								
	2755	27	0.013857	0.035525	0.0004	775.0	775.0	775.0	0	0	1	-29.999999999999996	29.999999999999996								
	1514	28	2.4e-5	0.000144	0.0213	701.0	701.0	701.0	0	0	1	-29.999999999999996	29.999999999999996								
	1514	2574	7.1e-5	0.000162	0.0162	250.99999999999997	250.99999999999997	250.99999999999997	0	0	1	-29.999999999999996	29.999999999999996								
	249	29	0.068027	0.173091	0.002	159.0	159.0	159.0	0	0	1	-29.999999999999996	29.999999999999996								
	296	29	0.027211	0.068783	0.001	400.0	400.0	400.0	0	0	1	-29.999999999999996	29.999999999999996								
	776	29	0.03099	0.202822	0.002	146.0	146.0	146.0	0	0	1	-29.999999999999996	29.999999999999996								
	1274	30	0.000257	0.001165	0.002	405.0	405.0	405.0	0	0	1	-29.999999999999996	29.999999999999996								
	1906	31	0.047317	0.131595	0.0015	215.0	215.0	215.0	0	0	1	-29.999999999999996	29.999999999999996								
	2686	32	0.075838	0.224742	0.0027	125.0	125.0	125.0	0	0	1	-29.999999999999996	29.999999999999996								
	648	32	0.028471	0.089695	0.001	314.0	314.0	314.0	0	0	1	-29.999999999999996	29.999999999999996								
	1337	32	0.080373	0.255732	0.003	111.00000000000001	111.00000000000001	111.00000000000001	0	0	1	-29.999999999999996	29.999999999999996								
	2050	32	0.000252	0.000504	0.0	52398.0	52398.0	52398.0	0	0	1	-29.999999999999996	29.999999999999996								
	1907	33	0.000444	0.001136	0.0	21404.0	21404.0	21404.0	0	0	1	-29.999999999999996	29.999999999999996								
	1370	34	0.057284	0.130864	0.0	183.0	183.0	183.0	0	0	1	-29.999999999999996	29.999999999999996								
	242	35	0.054749	0.157445	0.0027	178.0	178.0	178.0	0	0	1	-29.999999999999996	29.999999999999996								
	1507	35	0.038549	0.103049	0.0012	269.0	269.0	269.0	0	0	1	-29.999999999999996	29.999999999999996								
	2117	35	0.012598	0.052406	0.0006	548.0	548.0	548.0	0	0	1	-29.999999999999996	29.999999999999996								
	800	36	0.006914	0.020741	0.0	1195.0	1195.0	1195.0	0	0	1	-29.999999999999996	29.999999999999996								
	712	37	0.032124	0.082892	0.003	333.0	333.0	333.0	0	0	1	-29.999999999999996	29.999999999999996								
	1655	37	0.025573	0.09869	0.0012	290.0	290.0	290.0	0	0	1	-29.999999999999996	29.999999999999996								
	564	38	0.001512	0.005291	0.0064	5495.0	5495.0	5495.0	0	0	1	-29.999999999999996	29.999999999999996								
	637	39	0.005709	0.037926	0.0688	492.0	492.0	492.0	0	0	1	-29.999999999999996	29.999999999999996								
	2032	39	0.001758	0.011654	0.0208	492.0	492.0	492.0	0	0	1	-29.999999999999996	29.999999999999996								
	2585	40	0.001383	0.009462	0.0172	463.0	463.0	463.0	0	0	1	-29.999999999999996	29.999999999999996								
	593	40	0.00156	0.006933	0.0121	432.0	432.0	432.0	0	0	1	-29.999999999999996	29.999999999999996								
	788	40	0.006376	0.028733	0.0506	432.0	432.0	432.0	0	0	1	-29.999999999999996	29.999999999999996								
	1291	40	0.00158	0.010627	0.0192	480.99999999999994	480.99999999999994	480.99999999999994	0	0	1	-29.999999999999996	29.999999999999996								
	1108	41	0.001086	0.003536	0.3766	505.99999999999994	505.99999999999994	505.99999999999994	0	0	1	-29.999999999999996	29.999999999999996								
	1108	41	0.001086	0.003536	0.3766	505.99999999999994	505.99999999999994	505.99999999999994	0	0	1	-29.999999999999996	29.999999999999996								
	235	42	0.04059	0.110708	0.0013	250.99999999999997	250.99999999999997	250.99999999999997	0	0	1	-29.999999999999996	29.999999999999996								
	248	42	0.073646	0.225598	0.0087	125.0	125.0	125.0	0	0	1	-29.999999999999996	29.999999999999996								
	285	42	0.02066	0.088687	0.0021	325.0	325.0	325.0	0	0	1	-29.999999999999996	29.999999999999996								
	1933	42	0.019904	0.08516	0.001	338.0	338.0	338.0	0	0	1	-29.999999999999996	29.999999999999996								
	1935	42	0.014361	0.068027	0.0035	425.0	425.0	425.0	0	0	1	-29.999999999999996	29.999999999999996								
	1770	42	0.059209	0.150164	0.0021	183.0	183.0	183.0	0	0	1	-29.999999999999996	29.999999999999996								
	183	43	0.004741	0.020385	0.0334	1479.0	1479.0	1479.0	0	0	1	-29.999999999999996	29.999999999999996								
	2006	43	0.009027	0.048869	0.084	351.0	351.0	351.0	0	0	1	-29.999999999999996	29.999999999999996								
	2036	43	0.003516	0.016257	0.0273	311.0	311.0	311.0	0	0	1	-29.999999999999996	29.999999999999996								
	265	44	0.059461	0.163265	0.0018	170.0	170.0	170.0	0	0	1	-29.999999999999996	29.999999999999996								
	1652	44	0.146384	0.373394	0.0051	74.0	74.0	74.0	0	0	1	-29.999999999999996	29.999999999999996								
	389	45	0.000514	0.003417	0.0278	451.99999999999994	451.99999999999994	451.99999999999994	0	0	1	-29.999999999999996	29.999999999999996								
	408	45	0.001084	0.007198	0.0132	448.00000000000006	448.00000000000006	448.00000000000006	0	0	1	-29.999999999999996	29.999999999999996								
	1955	45	0.000523	0.002436	0.0167	348.0	348.0	348.0	0	0	1	-29.999999999999996	29.999999999999996								
	389	45	0.000514	0.003457	0.0203	356.0	356.0	356.0	0	0	1	-29.999999999999996	29.999999999999996								
	408	45	0.001086	0.007249	0.0132	540.0	540.0	540.0	0	0	1	-29.999999999999996	29.999999999999996								
	1954	45	0.000553	0.002469	0.0157	405.0	405.0	405.0	0	0	1	-29.999999999999996	29.999999999999996								
	408	45	0.001086	0.007269	0.0132	540.0	540.0	540.0	0	0	1	-29.999999999999996	29.999999999999996								
	380	47	0.016125	0.068279	0.0081	426.0	426.0	426.0	0	0	1	-29.999999999999996	29.999999999999996								
	1699	47	0.059209	0.150416	0.0021	184.0	184.0	184.0	0	0	1	-29.999999999999996	29.999999999999996								
	380	47	0.016125	0.068279	0.0081	426.0	426.0	426.0	0	0	1	-29.999999999999996	29.999999999999996								
	1610	48	0.102293	0.245906	0.0027	112.00000000000001	112.00000000000001	112.00000000000001	0	0	1	-29.999999999999996	29.999999999999996								
	2120	48	0.036533	0.088435	0.001	312.0	312.0	312.0	0	0	1	-29.999999999999996	29.999999999999996								
	1006	49	0.019148	0.081381	0.0012	354.0	354.0	354.0	0	0	1	-29.999999999999996	29.999999999999996								
	1585	49	0.02318	0.04258	0.0006	612.0	612.0	612.0	0	0	1	-29.999999999999996	29.999999999999996								
	1972	49	0.002268	0.022424	0.0002	1314.0	1314.0	1314.0	0	0	1	-29.999999999999996	29.999999999999996								
	2121	2576	0.012094	0.030486	0.0004	901.0	901.0	901.0	0	0	1	-29.999999999999996	29.999999999999996								
	1006	2576	0.03351	0.088435	0.001	313.0	313.0	313.0	0	0	1	-29.999999999999996	29.999999999999996								
	1971	2576	0.00252	0.02066	0.0002	1419.0	1419.0	1419.0	0	0	1	-29.999999999999996	29.999999999999996								
	1103	50	0.001837	0.011694	0.0759	467.0	467.0	467.0	0	0	1	-29.999999999999996	29.999999999999996								
	1256	50	0.001067	0.007131	0.0132	413.0	413.0	413.0	0	0	1	-29.999999999999996	29.999999999999996								
	1709	50	0.001284	0.008593	0.0152	541.0	541.0	541.0	0	0	1	-29.999999999999996	29.999999999999996								
	2895	50	0.001284	0.008593	0.0162	541.0	541.0	541.0	0	0	1	-29.999999999999996	29.999999999999996								
	2895	50	0.001284	0.008533	0.0162	541.0	541.0	541.0	0	0	1	-29.999999999999996	29.999999999999996								
	2621	51	0.000494	0.000928	0.0699	29202.999999999996	29202.999999999996	29202.999999999996	0	0	1	-29.999999999999996	29.999999999999996								
	434	51	0.000184	0.00159	0.1661	422.0	422.0	422.0	0	0	1	-29.999999999999996	29.999999999999996								
	1497	51	0.000198	0.001711	0.1711	385.0	385.0	385.0	0	0	1	-29.999999999999996	29.999999999999996								
	1522	51	0.000751	0.003358	0.1534	385.0	385.0	385.0	0	0	1	-29.999999999999996	29.999999999999996								
	450	52	0.000178	0.001047	0.1499	451.99999999999994	451.99999999999994	451.99999999999994	0	0	1	-29.999999999999996	29.999999999999996								
	651	2942	0.000119	0.000474	0.0688	451.99999999999994	451.99999999999994	451.99999999999994	0	0	1	-29.999999999999996	29.999999999999996								
	1247	52	0.000316	0.002232	0.2774	451.99999999999994	451.99999999999994	451.99999999999994	0	0	1	-29.999999999999996	29.999999999999996								
	2603	53	0.047115	0.108088	0.0031	250.99999999999997	250.99999999999997	250.99999999999997	0	0	1	-29.999999999999996	29.999999999999996								
	1126	53	0.036281	0.154195	0.0037	187.0	187.0	187.0	0	0	1	-29.999999999999996	29.999999999999996								
	1686	54	0.037227	0.106836	0.0328	270.0	270.0	270.0	0	0	1	-29.999999999999996	29.999999999999996								
	1929	54	0.006089	0.020756	0.0067	1408.0	1408.0	1408.0	0	0	1	-29.999999999999996	29.999999999999996								
	1109	55	0.000729	0.005118	0.0933	389.0	389.0	389.0	0	0	1	-29.999999999999996	29.999999999999996								
	1109	55	0.000755	0.005235	0.0909	419.00000000000006	419.00000000000006	419.00000000000006	0	0	1	-29.999999999999996	29.999999999999996								
	321	56	0.001787	0.01946	0.4214	1579.0	1579.0	1579.0	0	0	1	-29.999999999999996	29.999999999999996								
	638	57	0.001719	0.00877	0.0157	321.0	321.0	321.0	0	0	1	-29.999999999999996	29.999999999999996								
	1538	57	0.009165	0.04318	0.077	321.0	321.0	321.0	0	0	1	-29.999999999999996	29.999999999999996								
	190	59	0.004879	0.032454	0.0602	487.0	487.0	487.0	0	0	1	-29.999999999999996	29.999999999999996								
	258	59	0.006341	0.042746	0.0785	418.0	418.0	418.0	0	0	1	-29.999999999999996	29.999999999999996								
	284	59	0.006914	0.031249	0.0547	327.0	327.0	327.0	0	0	1	-29.999999999999996	29.999999999999996								
	396	60	0.000582	0.007652	0.2643	2487.0	2487.0	2487.0	0	0	1	-29.999999999999996	29.999999999999996								
	1001	60	0.001648	0.021634	0.748	1470.0	1470.0	1470.0	0	0	1	-29.999999999999996	29.999999999999996								
	1240	60	0.000838	0.014301	0.5198	2229.0	2229.0	2229.0	0	0	1	-29.999999999999996	29.999999999999996								
	2897	60	0.001163	0.015312	0.5285	2077.0	2077.0	2077.0	0	0	1	-29.999999999999996	29.999999999999996								
	396	60	0.000575	0.007576	0.2614	2487.0	2487.0	2487.0	0	0	1	-29.999999999999996	29.999999999999996								
	1001	60	0.001646	0.021633	0.7479	1470.0	1470.0	1470.0	0	0	1	-29.999999999999996	29.999999999999996								
	1240	60	0.000838	0.014287	0.5198	2231.0	2231.0	2231.0	0	0	1	-29.999999999999996	29.999999999999996								
	1723	60	0.00117	0.015339	0.5285	2074.0	2074.0	2074.0	0	0	1	-29.999999999999996	29.999999999999996								
	2897	60	0.001821	0.017874	0.4318	1382.0	1382.0	1382.0	0	0	1	-29.999999999999996	29.999999999999996								
	182	61	0.003023	0.01159	0.0002	2466.0	2466.0	2466.0	0	0	1	-29.999999999999996	29.999999999999996								
	1589	63	0.070043	0.190728	0.0021	146.0	146.0	146.0	0	0	1	-29.999999999999996	29.999999999999996								
	1684	2577	0.110103	0.294533	0.004	96.0	96.0	96.0	0	0	1	-29.999999999999996	29.999999999999996								
	1755	63	0.034014	0.145629	0.0018	198.0	198.0	198.0	0	0	1	-29.999999999999996	29.999999999999996								
	65	2577	0.000171	0.000313	0.0003	82782.0	82782.0	82782.0	0	0	1	-29.999999999999996	29.999999999999996								
	738	64	0.000672	0.003477	0.0365	254.0	254.0	254.0	0	0	1	-29.999999999999996	29.999999999999996								
	252	66	0.138123	0.332	0.001	73.0	73.0	73.0	0	0	1	-29.999999999999996	29.999999999999996								
	1773	2578	0.000988	0.003457	0.0	7261.0	7261.0	7261.0	0	0	1	-29.999999999999996	29.999999999999996								
	2145	66	0.008395	0.02321	0.0	1058.0	1058.0	1058.0	0	0	1	-29.999999999999996	29.999999999999996								
	1894	67	0.000632	0.004188	0.0081	471.0	471.0	471.0	0	0	1	-29.999999999999996	29.999999999999996								
	1894	2579	0.000612	0.004148	0.0071	471.0	471.0	471.0	0	0	1	-29.999999999999996	29.999999999999996								
	1362	69	0.000672	0.004405	0.0081	541.0	541.0	541.0	0	0	1	-29.999999999999996	29.999999999999996								
	2090	69	0.000968	0.004602	0.0081	304.0	304.0	304.0	0	0	1	-29.999999999999996	29.999999999999996								
	1362	69	0.000632	0.004444	0.0081	440.00000000000006	440.00000000000006	440.00000000000006	0	0	1	-29.999999999999996	29.999999999999996								
	2095	70	0.001975	0.013215	0.0243	541.0	541.0	541.0	0	0	1	-29.999999999999996	29.999999999999996								
	2096	70	0.001956	0.013037	0.0243	2348.0	2348.0	2348.0	0	0	1	-29.999999999999996	29.999999999999996								
	1761	71	0.002933	0.010267	0.0032	3007.0	3007.0	3007.0	0	0	1	-29.999999999999996	29.999999999999996								
	1911	71	0.0028	0.007511	0.0022	4006.0	4006.0	4006.0	0	0	1	-29.999999999999996	29.999999999999996								
	74	2580	2.0e-5	0.000198	0.0121	261.0	261.0	261.0	0	0	1	-29.999999999999996	29.999999999999996								
	74	72	2.0e-5	0.000198	0.0142	261.0	261.0	261.0	0	0	1	-29.999999999999996	29.999999999999996								
	377	74	0.000277	0.000928	0.2066	31961.0	31961.0	31961.0	0	0	1	-29.999999999999996	29.999999999999996								
	2653	74	0.002037	0.010904	0.0187	352.0	352.0	352.0	0	0	1	-29.999999999999996	29.999999999999996								
	423	74	0.000415	0.002015	0.1266	428.0	428.0	428.0	0	0	1	-29.999999999999996	29.999999999999996								
	483	74	0.000395	0.00156	0.1893	426.0	426.0	426.0	0	0	1	-29.999999999999996	29.999999999999996								
	791	74	4.0e-5	0.000178	0.0152	169660.0	169660.0	169660.0	0	0	1	-29.999999999999996	29.999999999999996								
	2792	74	0.001323	0.012444	0.0678	935.0	935.0	935.0	0	0	1	-29.999999999999996	29.999999999999996								
	1631	74	0.000454	0.002133	0.2511	268.0	268.0	268.0	0	0	1	-29.999999999999996	29.999999999999996								
	1855	74	0.000119	0.000691	0.1002	387.0	387.0	387.0	0	0	1	-29.999999999999996	29.999999999999996								
	1886	74	0.00083	0.005175	0.0203	323.0	323.0	323.0	0	0	1	-29.999999999999996	29.999999999999996								
	377	74	0.000277	0.000928	0.2086	31961.0	31961.0	31961.0	0	0	1	-29.999999999999996	29.999999999999996								
	2792	74	0.001314	0.012115	0.0673	943.0	943.0	943.0	0	0	1	-29.999999999999996	29.999999999999996								
	2926	74	5.9e-5	0.000217	0.0496	323.0	323.0	323.0	0	0	1	-29.999999999999996	29.999999999999996								
	1853	74	5.9e-5	0.000217	0.0466	323.0	323.0	323.0	0	0	1	-29.999999999999996	29.999999999999996								
	1640	75	0.000854	0.001563	0.0007	16578.0	16578.0	16578.0	0	0	1	-29.999999999999996	29.999999999999996								
	1909	76	0.000494	0.000988	0.0	23633.0	23633.0	23633.0	0	0	1	-29.999999999999996	29.999999999999996								
	124	77	0.062232	0.138574	0.0015	202.0	202.0	202.0	0	0	1	-29.999999999999996	29.999999999999996								
	1903	77	0.035525	0.084782	0.0009	335.0	335.0	335.0	0	0	1	-29.999999999999996	29.999999999999996								
	1520	78	0.000158	0.000948	0.002	348.0	348.0	348.0	0	0	1	-29.999999999999996	29.999999999999996								
	125	79	0.035273	0.218443	0.0029	138.0	138.0	138.0	0	0	1	-29.999999999999996	29.999999999999996								
	210	79	0.000252	0.000504	0.0	53974.0	53974.0	53974.0	0	0	1	-29.999999999999996	29.999999999999996								
	354	79	0.034442	0.11809	0.0091	248.0	248.0	248.0	0	0	1	-29.999999999999996	29.999999999999996								
	125	79	0.034266	0.221466	0.0	136.0	136.0	136.0	0	0	1	-29.999999999999996	29.999999999999996								
	310	80	0.0839	0.229025	0.0025	127.0	127.0	127.0	0	0	1	-29.999999999999996	29.999999999999996								
	667	80	0.048627	0.123205	0.0014	234.0	234.0	234.0	0	0	1	-29.999999999999996	29.999999999999996								
	903	81	0.001521	0.007076	0.0118	302.0	302.0	302.0	0	0	1	-29.999999999999996	29.999999999999996								
	1701	81	0.002469	0.011457	0.0203	315.0	315.0	315.0	0	0	1	-29.999999999999996	29.999999999999996								
	524	82	0.001442	0.009699	0.0172	566.0	566.0	566.0	0	0	1	-29.999999999999996	29.999999999999996								
	568	82	0.001422	0.009541	0.0172	566.0	566.0	566.0	0	0	1	-29.999999999999996	29.999999999999996								
...
];

%%-----  OPF Data  -----%%
%% cost data
%    1    startup    shutdown    n    x1    y1    ...    xn    yn
%    2    startup    shutdown    n    c(n-1)    ...    c0
mpc.gencost = [
	2	0.0	0.0	2	100.986309	0.0
	2	0.0	0.0	2	126.418079	0.0
	2	0.0	0.0	2	40.731394	0.0
	2	0.0	0.0	2	40.126035	0.0
	2	0.0	0.0	2	14.340287000000002	0.0
	2	0.0	0.0	2	40.157194	0.0
	2	0.0	0.0	2	117.41860500000001	0.0
	2	0.0	0.0	2	33.635175	0.0
	2	0.0	0.0	2	31.477929	0.0
	2	0.0	0.0	2	98.758944	0.0
	2	0.0	0.0	2	40.818052	0.0
	2	0.0	0.0	2	121.333846	0.0
	2	0.0	0.0	2	32.77942	0.0
	2	0.0	0.0	2	25.295674000000005	0.0
	2	0.0	0.0	2	37.867529	0.0
	2	0.0	0.0	2	34.253779	0.0
	2	0.0	0.0	2	29.445017	0.0
	2	0.0	0.0	2	34.926541	0.0
	2	0.0	0.0	2	25.340211	0.0
	2	0.0	0.0	2	24.973259	0.0
	2	0.0	0.0	2	32.940298	0.0
	2	0.0	0.0	2	44.90681	0.0
	2	0.0	0.0	2	43.093264	0.0
	2	0.0	0.0	2	16.54383	0.0
	2	0.0	0.0	2	31.291874	0.0
	2	0.0	0.0	2	106.235693	0.0
	2	0.0	0.0	2	26.167192	0.0
	2	0.0	0.0	2	105.77269400000002	0.0
	2	0.0	0.0	2	109.990006	0.0
	2	0.0	0.0	2	102.34146000000001	0.0
	2	0.0	0.0	2	23.505422	0.0
	2	0.0	0.0	2	108.51564200000001	0.0
	2	0.0	0.0	2	103.166394	0.0
	2	0.0	0.0	2	114.320443	0.0
	2	0.0	0.0	2	41.243026	0.0
	2	0.0	0.0	2	43.237882	0.0
	2	0.0	0.0	2	30.171172	0.0
	2	0.0	0.0	2	18.516359	0.0
	2	0.0	0.0	2	52.060991	0.0
	2	0.0	0.0	2	43.340325	0.0
	2	0.0	0.0	2	30.769345000000005	0.0
	2	0.0	0.0	2	48.207211	0.0
	2	0.0	0.0	2	117.478299	0.0
	2	0.0	0.0	2	27.644824	0.0
	2	0.0	0.0	2	115.143841	0.0
	2	0.0	0.0	2	20.063488	0.0
	2	0.0	0.0	2	44.182536	0.0
	2	0.0	0.0	2	122.548887	0.0
	2	0.0	0.0	2	38.399391	0.0
	2	0.0	0.0	2	31.433671	0.0
	2	0.0	0.0	2	107.38082400000002	0.0
	2	0.0	0.0	2	107.912049	0.0
	2	0.0	0.0	2	29.061768	0.0
	2	0.0	0.0	2	25.311460000000004	0.0
	2	0.0	0.0	2	36.029694	0.0
	2	0.0	0.0	2	10.513096	0.0
	2	0.0	0.0	2	35.586535	0.0
	2	0.0	0.0	2	42.894607	0.0
	2	0.0	0.0	2	124.36734000000001	0.0
	2	0.0	0.0	2	52.320279	0.0
	2	0.0	0.0	2	26.140314	0.0
	2	0.0	0.0	2	123.799005	0.0
	2	0.0	0.0	2	101.753605	0.0
	2	0.0	0.0	2	19.961544	0.0
	2	0.0	0.0	2	110.879704	0.0
	2	0.0	0.0	2	37.715142	0.0
	2	0.0	0.0	2	41.49987600000001	0.0
	2	0.0	0.0	2	28.650617000000004	0.0
	2	0.0	0.0	2	46.596802	0.0
	2	0.0	0.0	2	31.909977000000005	0.0
	2	0.0	0.0	2	12.435424000000001	0.0
	2	0.0	0.0	2	19.250727	0.0
	2	0.0	0.0	2	19.966272	0.0
	2	0.0	0.0	2	45.089052	0.0
	2	0.0	0.0	2	29.705389	0.0
	2	0.0	0.0	2	11.847894000000002	0.0
	2	0.0	0.0	2	27.254106000000004	0.0
	2	0.0	0.0	2	39.85128	0.0
	2	0.0	0.0	2	22.104855000000004	0.0
	2	0.0	0.0	2	38.440906	0.0
	2	0.0	0.0	2	29.870503	0.0
	2	0.0	0.0	2	99.615888	0.0
	2	0.0	0.0	2	37.192109	0.0
	2	0.0	0.0	2	109.748848	0.0
	2	0.0	0.0	2	36.935647	0.0
	2	0.0	0.0	2	38.368275	0.0
	2	0.0	0.0	2	34.812461	0.0
	2	0.0	0.0	2	122.571958	0.0
	2	0.0	0.0	2	124.160569	0.0
	2	0.0	0.0	2	101.716137	0.0
	2	0.0	0.0	2	30.257074	0.0
	2	0.0	0.0	2	121.46088	0.0
	2	0.0	0.0	2	103.089036	0.0
	2	0.0	0.0	2	43.477694	0.0
	2	0.0	0.0	2	112.38319	0.0
	2	0.0	0.0	2	38.821409	0.0
	2	0.0	0.0	2	28.695354	0.0
	2	0.0	0.0	2	43.888638	0.0
	2	0.0	0.0	2	40.684211	0.0
	2	0.0	0.0	2	14.839319000000001	0.0
	2	0.0	0.0	2	107.08329600000002	0.0
	2	0.0	0.0	2	109.52667300000002	0.0
	2	0.0	0.0	2	48.835643000000005	0.0
	2	0.0	0.0	2	63.494909	0.0
	2	0.0	0.0	2	114.994004	0.0
	2	0.0	0.0	2	121.183185	0.0
	2	0.0	0.0	2	121.344595	0.0
	2	0.0	0.0	2	27.691496	0.0
	2	0.0	0.0	2	99.721503	0.0
	2	0.0	0.0	2	20.788956	0.0
	2	0.0	0.0	2	20.18165	0.0
	2	0.0	0.0	2	110.443975	0.0
	2	0.0	0.0	2	33.244939	0.0
	2	0.0	0.0	2	22.602296000000003	0.0
	2	0.0	0.0	2	34.589169	0.0
	2	0.0	0.0	2	28.113517	0.0
	2	0.0	0.0	2	19.089435	0.0
	2	0.0	0.0	2	91.627137	0.0
	2	0.0	0.0	2	110.18083000000001	0.0
	2	0.0	0.0	2	48.928989	0.0
	2	0.0	0.0	2	43.28454	0.0
	2	0.0	0.0	2	26.075438	0.0
	2	0.0	0.0	2	102.387833	0.0
	2	0.0	0.0	2	28.628779	0.0
	2	0.0	0.0	2	30.501955	0.0
	2	0.0	0.0	2	36.562901	0.0
	2	0.0	0.0	2	50.484077	0.0
	2	0.0	0.0	2	33.937162	0.0
	2	0.0	0.0	2	33.88969	0.0
	2	0.0	0.0	2	96.773902	0.0
	2	0.0	0.0	2	103.201864	0.0
	2	0.0	0.0	2	108.81051800000002	0.0
	2	0.0	0.0	2	120.6463	0.0
	2	0.0	0.0	2	125.06106300000002	0.0
	2	0.0	0.0	2	47.152033	0.0
	2	0.0	0.0	2	27.556339000000005	0.0
	2	0.0	0.0	2	33.296792	0.0
	2	0.0	0.0	2	108.178986	0.0
	2	0.0	0.0	2	26.131836	0.0
	2	0.0	0.0	2	118.55778500000001	0.0
	2	0.0	0.0	2	142.759395	0.0
	2	0.0	0.0	2	23.901832	0.0
	2	0.0	0.0	2	116.480176	0.0
	2	0.0	0.0	2	50.619924000000005	0.0
	2	0.0	0.0	2	25.844586	0.0
	2	0.0	0.0	2	36.816217	0.0
	2	0.0	0.0	2	35.602479	0.0
	2	0.0	0.0	2	97.533932	0.0
	2	0.0	0.0	2	13.444523	0.0
	2	0.0	0.0	2	23.036512	0.0
	2	0.0	0.0	2	113.583074	0.0
	2	0.0	0.0	2	29.383994	0.0
	2	0.0	0.0	2	126.780352	0.0
	2	0.0	0.0	2	126.11126700000001	0.0
	2	0.0	0.0	2	42.88394	0.0
	2	0.0	0.0	2	30.122404000000003	0.0
	2	0.0	0.0	2	40.746253	0.0
	2	0.0	0.0	2	34.735244	0.0
	2	0.0	0.0	2	107.971493	0.0
	2	0.0	0.0	2	29.759241	0.0
	2	0.0	0.0	2	114.031202	0.0
	2	0.0	0.0	2	38.530524	0.0
	2	0.0	0.0	2	23.562956	0.0
	2	0.0	0.0	2	29.663453	0.0
	2	0.0	0.0	2	52.59873	0.0
	2	0.0	0.0	2	40.774356	0.0
	2	0.0	0.0	2	22.799318	0.0
	2	0.0	0.0	2	50.901715	0.0
	2	0.0	0.0	2	25.100556	0.0
	2	0.0	0.0	2	96.041267	0.0
	2	0.0	0.0	2	21.274763	0.0
	2	0.0	0.0	2	63.98840700000001	0.0
	2	0.0	0.0	2	6.768817	0.0
	2	0.0	0.0	2	20.342247	0.0
	2	0.0	0.0	2	35.857844	0.0
	2	0.0	0.0	2	25.249181	0.0
	2	0.0	0.0	2	32.143849	0.0
	2	0.0	0.0	2	127.920347	0.0
	2	0.0	0.0	2	123.840875	0.0
	2	0.0	0.0	2	116.03218600000001	0.0
	2	0.0	0.0	2	43.18752	0.0
	2	0.0	0.0	2	41.584963	0.0
	2	0.0	0.0	2	28.901507	0.0
	2	0.0	0.0	2	19.97567	0.0
	2	0.0	0.0	2	22.195377	0.0
	2	0.0	0.0	2	109.180191	0.0
	2	0.0	0.0	2	122.670246	0.0
	2	0.0	0.0	2	99.01876800000001	0.0
	2	0.0	0.0	2	110.665173	0.0
	2	0.0	0.0	2	46.104826	0.0
	2	0.0	0.0	2	39.544082	0.0
	2	0.0	0.0	2	48.645314	0.0
	2	0.0	0.0	2	104.850363	0.0
	2	0.0	0.0	2	0.0	0.0
	2	0.0	0.0	2	0.0	0.0
	2	0.0	0.0	2	25.705133	0.0
	2	0.0	0.0	2	56.459884	0.0
	2	0.0	0.0	2	16.38332	0.0
	2	0.0	0.0	2	37.400378	0.0
	2	0.0	0.0	2	53.728787	0.0
...
];

